data_diamond-type_Si

_cell_length_a      5
_cell_length_b      5
_cell_length_c      5
_cell_angle_alpha  90
_cell_angle_beta   90
_cell_angle_gamma  90

loop_
_space_group_symop_operation_xyz
  'x, y, z'
  '-x, -y+1/2, z+1/2'
  '-x+1/2, y+1/2, -z'
  'x+1/2, -y, -z+1/2'
  'z, x, y'
  'z+1/2, -x, -y+1/2'
  '-z, -x+1/2, y+1/2'
  '-z+1/2, x+1/2, -y'
  'y, z, x'
  '-y+1/2, z+1/2, -x'
  'y+1/2, -z, -x+1/2'
  '-y, -z+1/2, x+1/2'
  'y+3/4, x+1/4, -z+3/4'
  '-y+1/4, -x+1/4, -z+1/4'
  'y+1/4, -x+3/4, z+3/4'
  '-y+3/4, x+3/4, z+1/4'
  'x+3/4, z+1/4, -y+3/4'
  '-x+3/4, z+3/4, y+1/4'
  '-x+1/4, -z+1/4, -y+1/4'
  'x+1/4, -z+3/4, y+3/4'
  'z+3/4, y+1/4, -x+3/4'
  'z+1/4, -y+3/4, x+3/4'
  '-z+3/4, y+3/4, x+1/4'
  '-z+1/4, -y+1/4, -x+1/4'
  '-x+1/4, -y+1/4, -z+1/4'
  'x+1/4, y+3/4, -z+3/4'
  'x+3/4, -y+3/4, z+1/4'
  '-x+3/4, y+1/4, z+3/4'
  '-z+1/4, -x+1/4, -y+1/4'
  '-z+3/4, x+1/4, y+3/4'
  'z+1/4, x+3/4, -y+3/4'
  'z+3/4, -x+3/4, y+1/4'
  '-y+1/4, -z+1/4, -x+1/4'
  'y+3/4, -z+3/4, x+1/4'
  '-y+3/4, z+1/4, x+3/4'
  'y+1/4, z+3/4, -x+3/4'
  '-y+1/2, -x, z+1/2'
  'y, x, z'
  '-y, x+1/2, -z+1/2'
  'y+1/2, -x+1/2, -z'
  '-x+1/2, -z, y+1/2'
  'x+1/2, -z+1/2, -y'
  'x, z, y'
  '-x, z+1/2, -y+1/2'
  '-z+1/2, -y, x+1/2'
  '-z, y+1/2, -x+1/2'
  'z+1/2, -y+1/2, -x'
  'z, y, x'
  'x, y+1/2, z+1/2'
  '-x, -y, z'
  '-x+1/2, y, -z+1/2'
  'x+1/2, -y+1/2, -z'
  'z, x+1/2, y+1/2'
  'z+1/2, -x+1/2, -y'
  '-z, -x, y'
  '-z+1/2, x, -y+1/2'
  'y, z+1/2, x+1/2'
  '-y+1/2, z, -x+1/2'
  'y+1/2, -z+1/2, -x'
  '-y, -z, x'
  'y+3/4, x+3/4, -z+1/4'
  '-y+1/4, -x+3/4, -z+3/4'
  'y+1/4, -x+1/4, z+1/4'
  '-y+3/4, x+1/4, z+3/4'
  'x+3/4, z+3/4, -y+1/4'
  '-x+3/4, z+1/4, y+3/4'
  '-x+1/4, -z+3/4, -y+3/4'
  'x+1/4, -z+1/4, y+1/4'
  'z+3/4, y+3/4, -x+1/4'
  'z+1/4, -y+1/4, x+1/4'
  '-z+3/4, y+1/4, x+3/4'
  '-z+1/4, -y+3/4, -x+3/4'
  '-x+1/4, -y+3/4, -z+3/4'
  'x+1/4, y+1/4, -z+1/4'
  'x+3/4, -y+1/4, z+3/4'
  '-x+3/4, y+3/4, z+1/4'
  '-z+1/4, -x+3/4, -y+3/4'
  '-z+3/4, x+3/4, y+1/4'
  'z+1/4, x+1/4, -y+1/4'
  'z+3/4, -x+1/4, y+3/4'
  '-y+1/4, -z+3/4, -x+3/4'
  'y+3/4, -z+1/4, x+3/4'
  '-y+3/4, z+3/4, x+1/4'
  'y+1/4, z+1/4, -x+1/4'
  '-y+1/2, -x+1/2, z'
  'y, x+1/2, z+1/2'
  '-y, x, -z'
  'y+1/2, -x, -z+1/2'
  '-x+1/2, -z+1/2, y'
  'x+1/2, -z, -y+1/2'
  'x, z+1/2, y+1/2'
  '-x, z, -y'
  '-z+1/2, -y+1/2, x'
  '-z, y, -x'
  'z+1/2, -y, -x+1/2'
  'z, y+1/2, x+1/2'
  'x+1/2, y, z+1/2'
  '-x+1/2, -y+1/2, z'
  '-x, y+1/2, -z+1/2'
  'x, -y, -z'
  'z+1/2, x, y+1/2'
  'z, -x, -y'
  '-z+1/2, -x+1/2, y'
  '-z, x+1/2, -y+1/2'
  'y+1/2, z, x+1/2'
  '-y, z+1/2, -x+1/2'
  'y, -z, -x'
  '-y+1/2, -z+1/2, x'
  'y+1/4, x+1/4, -z+1/4'
  '-y+3/4, -x+1/4, -z+3/4'
  'y+3/4, -x+3/4, z+1/4'
  '-y+1/4, x+3/4, z+3/4'
  'x+1/4, z+1/4, -y+1/4'
  '-x+1/4, z+3/4, y+3/4'
  '-x+3/4, -z+1/4, -y+3/4'
  'x+3/4, -z+3/4, y+1/4'
  'z+1/4, y+1/4, -x+1/4'
  'z+3/4, -y+3/4, x+1/4'
  '-z+1/4, y+3/4, x+3/4'
  '-z+3/4, -y+1/4, -x+3/4'
  '-x+3/4, -y+1/4, -z+3/4'
  'x+3/4, y+3/4, -z+1/4'
  'x+1/4, -y+3/4, z+3/4'
  '-x+1/4, y+1/4, z+1/4'
  '-z+3/4, -x+1/4, -y+3/4'
  '-z+1/4, x+1/4, y+1/4'
  'z+3/4, x+3/4, -y+1/4'
  'z+1/4, -x+3/4, y+3/4'
  '-y+3/4, -z+1/4, -x+3/4'
  'y+1/4, -z+3/4, x+3/4'
  '-y+1/4, z+1/4, x+1/4'
  'y+3/4, z+3/4, -x+1/4'
  '-y, -x, z'
  'y+1/2, x, z+1/2'
  '-y+1/2, x+1/2, -z'
  'y, -x+1/2, -z+1/2'
  '-x, -z, y'
  'x, -z+1/2, -y+1/2'
  'x+1/2, z, y+1/2'
  '-x+1/2, z+1/2, -y'
  '-z, -y, x'
  '-z+1/2, y+1/2, -x'
  'z, -y+1/2, -x+1/2'
  'z+1/2, y, x+1/2'
  'x+1/2, y+1/2, z'
  '-x+1/2, -y, z+1/2'
  '-x, y, -z'
  'x, -y+1/2, -z+1/2'
  'z+1/2, x+1/2, y'
  'z, -x+1/2, -y+1/2'
  '-z+1/2, -x, y+1/2'
  '-z, x, -y'
  'y+1/2, z+1/2, x'
  '-y, z, -x'
  'y, -z+1/2, -x+1/2'
  '-y+1/2, -z, x+1/2'
  'y+1/4, x+3/4, -z+3/4'
  '-y+3/4, -x+3/4, -z+1/4'
  'y+3/4, -x+1/4, z+3/4'
  '-y+1/4, x+1/4, z+1/4'
  'x+1/4, z+3/4, -y+3/4'
  '-x+1/4, z+1/4, y+1/4'
  '-x+3/4, -z+3/4, -y+1/4'
  'x+3/4, -z+1/4, y+3/4'
  'z+1/4, y+3/4, -x+3/4'
  'z+3/4, -y+1/4, x+3/4'
  '-z+1/4, y+1/4, x+1/4'
  '-z+3/4, -y+3/4, -x+1/4'
  '-x+3/4, -y+3/4, -z+1/4'
  'x+3/4, y+1/4, -z+3/4'
  'x+1/4, -y+1/4, z+1/4'
  '-x+1/4, y+3/4, z+3/4'
  '-z+3/4, -x+3/4, -y+1/4'
  '-z+1/4, x+3/4, y+3/4'
  'z+3/4, x+1/4, -y+3/4'
  'z+1/4, -x+1/4, y+1/4'
  '-y+3/4, -z+3/4, -x+1/4'
  'y+1/4, -z+1/4, x+1/4'
  '-y+1/4, z+3/4, x+3/4'
  'y+3/4, z+1/4, -x+3/4'
  '-y, -x+1/2, z+1/2'
  'y+1/2, x+1/2, z'
  '-y+1/2, x, -z+1/2'
  'y, -x, -z'
  '-x, -z+1/2, y+1/2'
  'x, -z, -y'
  'x+1/2, z+1/2, y'
  '-x+1/2, z, -y+1/2'
  '-z, -y+1/2, x+1/2'
  '-z+1/2, y, -x+1/2'
  'z, -y, -x'
  'z+1/2, y+1/2, x'

loop_
_atom_site_type_symbol
_atom_site_fract_x
_atom_site_fract_y
_atom_site_fract_z
  Si  0 0 0
